<?xml version="1.0" encoding="UTF-8"?>
<routes xmlns:xsi="http://www.w3.org/2001/XMLSchema-instance" xsi:noNamespaceSchemaLocation="http://sumo.dlr.de/xsd/routes_file.xsd">
    <vType id="normal" accel="2.6" decel="4.5" sigma="0.5" length="5" maxSpeed="13.89" color="1,1,0"/>
    <vType id="emergency" accel="3.5" decel="5.0" sigma="0.3" length="6" maxSpeed="20.0" color="1,0,0" guiShape="emergency"/>
    <route id="route0" edges="N2C C2S"/>
    <route id="route1" edges="N2C C2E"/>
    <route id="route2" edges="N2C C2W"/>
    <route id="route3" edges="S2C C2N"/>
    <route id="route4" edges="S2C C2E"/>
    <route id="route5" edges="S2C C2W"/>
    <route id="route6" edges="E2C C2W"/>
    <route id="route7" edges="E2C C2N"/>
    <route id="route8" edges="E2C C2S"/>
    <route id="route9" edges="W2C C2E"/>
    <route id="route10" edges="W2C C2N"/>
    <route id="route11" edges="W2C C2S"/>
    <vehicle id="veh0" type="normal" route="route5" depart="0.0"/>
    <vehicle id="veh1" type="normal" route="route11" depart="2.5"/>
    <vehicle id="veh2" type="normal" route="route6" depart="5.0"/>
    <vehicle id="veh3" type="normal" route="route6" depart="7.5"/>
    <vehicle id="veh4" type="normal" route="route7" depart="10.0"/>
    <vehicle id="veh5" type="normal" route="route9" depart="12.5"/>
    <vehicle id="veh6" type="emergency" route="route0" depart="15.0"/>
    <vehicle id="veh7" type="normal" route="route11" depart="17.5"/>
    <vehicle id="veh8" type="normal" route="route5" depart="20.0"/>
    <vehicle id="veh9" type="normal" route="route5" depart="22.5"/>
    <vehicle id="veh10" type="normal" route="route8" depart="25.0"/>
    <vehicle id="veh11" type="normal" route="route4" depart="27.5"/>
    <vehicle id="veh12" type="normal" route="route8" depart="30.0"/>
    <vehicle id="veh13" type="normal" route="route4" depart="32.5"/>
    <vehicle id="veh14" type="normal" route="route7" depart="35.0"/>
    <vehicle id="veh15" type="normal" route="route10" depart="37.5"/>
    <vehicle id="veh16" type="normal" route="route1" depart="40.0"/>
    <vehicle id="veh17" type="normal" route="route6" depart="42.5"/>
    <vehicle id="veh18" type="normal" route="route9" depart="45.0"/>
    <vehicle id="veh19" type="normal" route="route6" depart="47.5"/>
    <vehicle id="veh20" type="normal" route="route5" depart="50.0"/>
    <vehicle id="veh21" type="normal" route="route11" depart="52.5"/>
    <vehicle id="veh22" type="normal" route="route8" depart="55.0"/>
    <vehicle id="veh23" type="normal" route="route7" depart="57.5"/>
    <vehicle id="veh24" type="normal" route="route5" depart="60.0"/>
    <vehicle id="veh25" type="normal" route="route6" depart="62.5"/>
    <vehicle id="veh26" type="normal" route="route4" depart="65.0"/>
    <vehicle id="veh27" type="normal" route="route1" depart="67.5"/>
    <vehicle id="veh28" type="normal" route="route2" depart="70.0"/>
    <vehicle id="veh29" type="normal" route="route10" depart="72.5"/>
    <vehicle id="veh30" type="normal" route="route1" depart="75.0"/>
    <vehicle id="veh31" type="normal" route="route2" depart="77.5"/>
    <vehicle id="veh32" type="normal" route="route1" depart="80.0"/>
    <vehicle id="veh33" type="normal" route="route2" depart="82.5"/>
    <vehicle id="veh34" type="normal" route="route10" depart="85.0"/>
    <vehicle id="veh35" type="normal" route="route7" depart="87.5"/>
    <vehicle id="veh36" type="emergency" route="route6" depart="90.0"/>
    <vehicle id="veh37" type="normal" route="route10" depart="92.5"/>
    <vehicle id="veh38" type="normal" route="route4" depart="95.0"/>
    <vehicle id="veh39" type="emergency" route="route7" depart="97.5"/>
    <vehicle id="veh40" type="normal" route="route8" depart="100.0"/>
    <vehicle id="veh41" type="emergency" route="route0" depart="102.5"/>
    <vehicle id="veh42" type="normal" route="route9" depart="105.0"/>
    <vehicle id="veh43" type="normal" route="route2" depart="107.5"/>
    <vehicle id="veh44" type="normal" route="route11" depart="110.0"/>
    <vehicle id="veh45" type="emergency" route="route10" depart="112.5"/>
    <vehicle id="veh46" type="normal" route="route8" depart="115.0"/>
    <vehicle id="veh47" type="normal" route="route6" depart="117.5"/>
    <vehicle id="veh48" type="normal" route="route10" depart="120.0"/>
    <vehicle id="veh49" type="normal" route="route7" depart="122.5"/>
    <vehicle id="veh50" type="normal" route="route3" depart="125.0"/>
    <vehicle id="veh51" type="normal" route="route7" depart="127.5"/>
    <vehicle id="veh52" type="normal" route="route7" depart="130.0"/>
    <vehicle id="veh53" type="emergency" route="route1" depart="132.5"/>
    <vehicle id="veh54" type="normal" route="route8" depart="135.0"/>
    <vehicle id="veh55" type="normal" route="route8" depart="137.5"/>
    <vehicle id="veh56" type="normal" route="route10" depart="140.0"/>
    <vehicle id="veh57" type="normal" route="route1" depart="142.5"/>
    <vehicle id="veh58" type="normal" route="route10" depart="145.0"/>
    <vehicle id="veh59" type="normal" route="route10" depart="147.5"/>
    <vehicle id="veh60" type="normal" route="route5" depart="150.0"/>
    <vehicle id="veh61" type="normal" route="route8" depart="152.5"/>
    <vehicle id="veh62" type="normal" route="route4" depart="155.0"/>
    <vehicle id="veh63" type="normal" route="route9" depart="157.5"/>
    <vehicle id="veh64" type="normal" route="route7" depart="160.0"/>
    <vehicle id="veh65" type="normal" route="route7" depart="162.5"/>
    <vehicle id="veh66" type="normal" route="route4" depart="165.0"/>
    <vehicle id="veh67" type="normal" route="route2" depart="167.5"/>
    <vehicle id="veh68" type="normal" route="route11" depart="170.0"/>
    <vehicle id="veh69" type="normal" route="route5" depart="172.5"/>
    <vehicle id="veh70" type="normal" route="route11" depart="175.0"/>
    <vehicle id="veh71" type="normal" route="route4" depart="177.5"/>
    <vehicle id="veh72" type="normal" route="route4" depart="180.0"/>
    <vehicle id="veh73" type="normal" route="route7" depart="182.5"/>
    <vehicle id="veh74" type="normal" route="route9" depart="185.0"/>
    <vehicle id="veh75" type="normal" route="route8" depart="187.5"/>
    <vehicle id="veh76" type="normal" route="route3" depart="190.0"/>
    <vehicle id="veh77" type="normal" route="route9" depart="192.5"/>
    <vehicle id="veh78" type="normal" route="route6" depart="195.0"/>
    <vehicle id="veh79" type="emergency" route="route0" depart="197.5"/>
    <vehicle id="veh80" type="normal" route="route3" depart="200.0"/>
    <vehicle id="veh81" type="emergency" route="route10" depart="202.5"/>
    <vehicle id="veh82" type="normal" route="route4" depart="205.0"/>
    <vehicle id="veh83" type="normal" route="route7" depart="207.5"/>
    <vehicle id="veh84" type="normal" route="route2" depart="210.0"/>
    <vehicle id="veh85" type="normal" route="route2" depart="212.5"/>
    <vehicle id="veh86" type="emergency" route="route1" depart="215.0"/>
    <vehicle id="veh87" type="normal" route="route5" depart="217.5"/>
    <vehicle id="veh88" type="normal" route="route2" depart="220.0"/>
    <vehicle id="veh89" type="normal" route="route10" depart="222.5"/>
    <vehicle id="veh90" type="normal" route="route7" depart="225.0"/>
    <vehicle id="veh91" type="emergency" route="route11" depart="227.5"/>
    <vehicle id="veh92" type="normal" route="route1" depart="230.0"/>
    <vehicle id="veh93" type="normal" route="route3" depart="232.5"/>
    <vehicle id="veh94" type="normal" route="route1" depart="235.0"/>
    <vehicle id="veh95" type="normal" route="route0" depart="237.5"/>
    <vehicle id="veh96" type="normal" route="route7" depart="240.0"/>
    <vehicle id="veh97" type="normal" route="route10" depart="242.5"/>
    <vehicle id="veh98" type="normal" route="route5" depart="245.0"/>
    <vehicle id="veh99" type="normal" route="route11" depart="247.5"/>
    <vehicle id="veh100" type="normal" route="route3" depart="250.0"/>
    <vehicle id="veh101" type="normal" route="route5" depart="252.5"/>
    <vehicle id="veh102" type="normal" route="route4" depart="255.0"/>
    <vehicle id="veh103" type="normal" route="route11" depart="257.5"/>
    <vehicle id="veh104" type="normal" route="route1" depart="260.0"/>
    <vehicle id="veh105" type="normal" route="route6" depart="262.5"/>
    <vehicle id="veh106" type="normal" route="route9" depart="265.0"/>
    <vehicle id="veh107" type="normal" route="route10" depart="267.5"/>
    <vehicle id="veh108" type="normal" route="route9" depart="270.0"/>
    <vehicle id="veh109" type="normal" route="route1" depart="272.5"/>
    <vehicle id="veh110" type="normal" route="route7" depart="275.0"/>
    <vehicle id="veh111" type="normal" route="route11" depart="277.5"/>
    <vehicle id="veh112" type="normal" route="route3" depart="280.0"/>
    <vehicle id="veh113" type="normal" route="route3" depart="282.5"/>
    <vehicle id="veh114" type="normal" route="route0" depart="285.0"/>
    <vehicle id="veh115" type="normal" route="route8" depart="287.5"/>
    <vehicle id="veh116" type="normal" route="route5" depart="290.0"/>
    <vehicle id="veh117" type="normal" route="route1" depart="292.5"/>
    <vehicle id="veh118" type="normal" route="route7" depart="295.0"/>
    <vehicle id="veh119" type="normal" route="route10" depart="297.5"/>
    <vehicle id="veh120" type="normal" route="route0" depart="300.0"/>
    <vehicle id="veh121" type="normal" route="route0" depart="302.5"/>
    <vehicle id="veh122" type="normal" route="route6" depart="305.0"/>
    <vehicle id="veh123" type="normal" route="route10" depart="307.5"/>
    <vehicle id="veh124" type="normal" route="route11" depart="310.0"/>
    <vehicle id="veh125" type="normal" route="route0" depart="312.5"/>
    <vehicle id="veh126" type="normal" route="route10" depart="315.0"/>
    <vehicle id="veh127" type="normal" route="route11" depart="317.5"/>
    <vehicle id="veh128" type="normal" route="route7" depart="320.0"/>
    <vehicle id="veh129" type="normal" route="route1" depart="322.5"/>
    <vehicle id="veh130" type="normal" route="route8" depart="325.0"/>
    <vehicle id="veh131" type="normal" route="route11" depart="327.5"/>
    <vehicle id="veh132" type="normal" route="route4" depart="330.0"/>
    <vehicle id="veh133" type="normal" route="route11" depart="332.5"/>
    <vehicle id="veh134" type="normal" route="route1" depart="335.0"/>
    <vehicle id="veh135" type="normal" route="route9" depart="337.5"/>
    <vehicle id="veh136" type="normal" route="route2" depart="340.0"/>
    <vehicle id="veh137" type="normal" route="route1" depart="342.5"/>
    <vehicle id="veh138" type="normal" route="route9" depart="345.0"/>
    <vehicle id="veh139" type="normal" route="route8" depart="347.5"/>
    <vehicle id="veh140" type="normal" route="route4" depart="350.0"/>
    <vehicle id="veh141" type="emergency" route="route8" depart="352.5"/>
    <vehicle id="veh142" type="normal" route="route7" depart="355.0"/>
    <vehicle id="veh143" type="normal" route="route2" depart="357.5"/>
    <vehicle id="veh144" type="normal" route="route1" depart="360.0"/>
    <vehicle id="veh145" type="emergency" route="route1" depart="362.5"/>
    <vehicle id="veh146" type="normal" route="route0" depart="365.0"/>
    <vehicle id="veh147" type="normal" route="route5" depart="367.5"/>
    <vehicle id="veh148" type="normal" route="route4" depart="370.0"/>
    <vehicle id="veh149" type="normal" route="route9" depart="372.5"/>
    <vehicle id="veh150" type="normal" route="route1" depart="375.0"/>
    <vehicle id="veh151" type="normal" route="route5" depart="377.5"/>
    <vehicle id="veh152" type="normal" route="route8" depart="380.0"/>
    <vehicle id="veh153" type="normal" route="route2" depart="382.5"/>
    <vehicle id="veh154" type="normal" route="route8" depart="385.0"/>
    <vehicle id="veh155" type="normal" route="route8" depart="387.5"/>
    <vehicle id="veh156" type="emergency" route="route9" depart="390.0"/>
    <vehicle id="veh157" type="normal" route="route11" depart="392.5"/>
    <vehicle id="veh158" type="normal" route="route10" depart="395.0"/>
    <vehicle id="veh159" type="normal" route="route5" depart="397.5"/>
    <vehicle id="veh160" type="normal" route="route5" depart="400.0"/>
    <vehicle id="veh161" type="normal" route="route11" depart="402.5"/>
    <vehicle id="veh162" type="normal" route="route1" depart="405.0"/>
    <vehicle id="veh163" type="normal" route="route5" depart="407.5"/>
    <vehicle id="veh164" type="normal" route="route0" depart="410.0"/>
    <vehicle id="veh165" type="normal" route="route1" depart="412.5"/>
    <vehicle id="veh166" type="normal" route="route8" depart="415.0"/>
    <vehicle id="veh167" type="normal" route="route3" depart="417.5"/>
    <vehicle id="veh168" type="normal" route="route3" depart="420.0"/>
    <vehicle id="veh169" type="normal" route="route9" depart="422.5"/>
    <vehicle id="veh170" type="normal" route="route5" depart="425.0"/>
    <vehicle id="veh171" type="normal" route="route8" depart="427.5"/>
    <vehicle id="veh172" type="normal" route="route9" depart="430.0"/>
    <vehicle id="veh173" type="normal" route="route0" depart="432.5"/>
    <vehicle id="veh174" type="normal" route="route2" depart="435.0"/>
    <vehicle id="veh175" type="normal" route="route8" depart="437.5"/>
    <vehicle id="veh176" type="normal" route="route7" depart="440.0"/>
    <vehicle id="veh177" type="normal" route="route3" depart="442.5"/>
    <vehicle id="veh178" type="normal" route="route3" depart="445.0"/>
    <vehicle id="veh179" type="normal" route="route7" depart="447.5"/>
    <vehicle id="veh180" type="normal" route="route8" depart="450.0"/>
    <vehicle id="veh181" type="emergency" route="route5" depart="452.5"/>
    <vehicle id="veh182" type="normal" route="route5" depart="455.0"/>
    <vehicle id="veh183" type="normal" route="route10" depart="457.5"/>
    <vehicle id="veh184" type="normal" route="route1" depart="460.0"/>
    <vehicle id="veh185" type="normal" route="route7" depart="462.5"/>
    <vehicle id="veh186" type="normal" route="route2" depart="465.0"/>
    <vehicle id="veh187" type="normal" route="route8" depart="467.5"/>
    <vehicle id="veh188" type="normal" route="route10" depart="470.0"/>
    <vehicle id="veh189" type="normal" route="route0" depart="472.5"/>
    <vehicle id="veh190" type="normal" route="route7" depart="475.0"/>
    <vehicle id="veh191" type="normal" route="route3" depart="477.5"/>
    <vehicle id="veh192" type="emergency" route="route5" depart="480.0"/>
    <vehicle id="veh193" type="normal" route="route0" depart="482.5"/>
    <vehicle id="veh194" type="normal" route="route4" depart="485.0"/>
    <vehicle id="veh195" type="normal" route="route4" depart="487.5"/>
    <vehicle id="veh196" type="normal" route="route9" depart="490.0"/>
    <vehicle id="veh197" type="normal" route="route6" depart="492.5"/>
    <vehicle id="veh198" type="normal" route="route3" depart="495.0"/>
    <vehicle id="veh199" type="emergency" route="route6" depart="497.5"/>
    <vehicle id="veh200" type="normal" route="route3" depart="500.0"/>
    <vehicle id="veh201" type="normal" route="route10" depart="502.5"/>
    <vehicle id="veh202" type="normal" route="route10" depart="505.0"/>
    <vehicle id="veh203" type="normal" route="route4" depart="507.5"/>
    <vehicle id="veh204" type="normal" route="route10" depart="510.0"/>
    <vehicle id="veh205" type="normal" route="route3" depart="512.5"/>
    <vehicle id="veh206" type="normal" route="route11" depart="515.0"/>
    <vehicle id="veh207" type="normal" route="route7" depart="517.5"/>
    <vehicle id="veh208" type="normal" route="route0" depart="520.0"/>
    <vehicle id="veh209" type="normal" route="route8" depart="522.5"/>
    <vehicle id="veh210" type="normal" route="route11" depart="525.0"/>
    <vehicle id="veh211" type="normal" route="route7" depart="527.5"/>
    <vehicle id="veh212" type="normal" route="route0" depart="530.0"/>
    <vehicle id="veh213" type="normal" route="route3" depart="532.5"/>
    <vehicle id="veh214" type="normal" route="route7" depart="535.0"/>
    <vehicle id="veh215" type="emergency" route="route10" depart="537.5"/>
    <vehicle id="veh216" type="normal" route="route8" depart="540.0"/>
    <vehicle id="veh217" type="normal" route="route11" depart="542.5"/>
    <vehicle id="veh218" type="normal" route="route8" depart="545.0"/>
    <vehicle id="veh219" type="normal" route="route8" depart="547.5"/>
    <vehicle id="veh220" type="normal" route="route3" depart="550.0"/>
    <vehicle id="veh221" type="normal" route="route6" depart="552.5"/>
    <vehicle id="veh222" type="normal" route="route5" depart="555.0"/>
    <vehicle id="veh223" type="normal" route="route4" depart="557.5"/>
    <vehicle id="veh224" type="emergency" route="route9" depart="560.0"/>
    <vehicle id="veh225" type="normal" route="route1" depart="562.5"/>
    <vehicle id="veh226" type="normal" route="route5" depart="565.0"/>
    <vehicle id="veh227" type="normal" route="route3" depart="567.5"/>
    <vehicle id="veh228" type="normal" route="route10" depart="570.0"/>
    <vehicle id="veh229" type="normal" route="route5" depart="572.5"/>
    <vehicle id="veh230" type="normal" route="route6" depart="575.0"/>
    <vehicle id="veh231" type="normal" route="route11" depart="577.5"/>
    <vehicle id="veh232" type="normal" route="route10" depart="580.0"/>
    <vehicle id="veh233" type="normal" route="route1" depart="582.5"/>
    <vehicle id="veh234" type="normal" route="route5" depart="585.0"/>
    <vehicle id="veh235" type="normal" route="route7" depart="587.5"/>
    <vehicle id="veh236" type="emergency" route="route0" depart="590.0"/>
    <vehicle id="veh237" type="normal" route="route10" depart="592.5"/>
    <vehicle id="veh238" type="normal" route="route8" depart="595.0"/>
    <vehicle id="veh239" type="normal" route="route7" depart="597.5"/>
    <vehicle id="veh240" type="normal" route="route0" depart="600.0"/>
    <vehicle id="veh241" type="normal" route="route0" depart="602.5"/>
    <vehicle id="veh242" type="normal" route="route6" depart="605.0"/>
    <vehicle id="veh243" type="emergency" route="route1" depart="607.5"/>
    <vehicle id="veh244" type="normal" route="route2" depart="610.0"/>
    <vehicle id="veh245" type="emergency" route="route2" depart="612.5"/>
    <vehicle id="veh246" type="normal" route="route10" depart="615.0"/>
    <vehicle id="veh247" type="normal" route="route2" depart="617.5"/>
    <vehicle id="veh248" type="normal" route="route6" depart="620.0"/>
    <vehicle id="veh249" type="normal" route="route5" depart="622.5"/>
    <vehicle id="veh250" type="normal" route="route5" depart="625.0"/>
    <vehicle id="veh251" type="normal" route="route7" depart="627.5"/>
    <vehicle id="veh252" type="normal" route="route1" depart="630.0"/>
    <vehicle id="veh253" type="normal" route="route2" depart="632.5"/>
    <vehicle id="veh254" type="normal" route="route8" depart="635.0"/>
    <vehicle id="veh255" type="normal" route="route7" depart="637.5"/>
    <vehicle id="veh256" type="normal" route="route1" depart="640.0"/>
    <vehicle id="veh257" type="normal" route="route11" depart="642.5"/>
    <vehicle id="veh258" type="normal" route="route0" depart="645.0"/>
    <vehicle id="veh259" type="normal" route="route2" depart="647.5"/>
    <vehicle id="veh260" type="normal" route="route6" depart="650.0"/>
    <vehicle id="veh261" type="emergency" route="route8" depart="652.5"/>
    <vehicle id="veh262" type="normal" route="route3" depart="655.0"/>
    <vehicle id="veh263" type="normal" route="route5" depart="657.5"/>
    <vehicle id="veh264" type="normal" route="route7" depart="660.0"/>
    <vehicle id="veh265" type="normal" route="route5" depart="662.5"/>
    <vehicle id="veh266" type="normal" route="route0" depart="665.0"/>
    <vehicle id="veh267" type="normal" route="route11" depart="667.5"/>
    <vehicle id="veh268" type="normal" route="route8" depart="670.0"/>
    <vehicle id="veh269" type="normal" route="route11" depart="672.5"/>
    <vehicle id="veh270" type="normal" route="route10" depart="675.0"/>
    <vehicle id="veh271" type="normal" route="route1" depart="677.5"/>
    <vehicle id="veh272" type="normal" route="route3" depart="680.0"/>
    <vehicle id="veh273" type="normal" route="route10" depart="682.5"/>
    <vehicle id="veh274" type="normal" route="route10" depart="685.0"/>
    <vehicle id="veh275" type="normal" route="route4" depart="687.5"/>
    <vehicle id="veh276" type="normal" route="route10" depart="690.0"/>
    <vehicle id="veh277" type="normal" route="route10" depart="692.5"/>
    <vehicle id="veh278" type="normal" route="route11" depart="695.0"/>
    <vehicle id="veh279" type="normal" route="route1" depart="697.5"/>
    <vehicle id="veh280" type="normal" route="route9" depart="700.0"/>
    <vehicle id="veh281" type="normal" route="route6" depart="702.5"/>
    <vehicle id="veh282" type="normal" route="route11" depart="705.0"/>
    <vehicle id="veh283" type="normal" route="route10" depart="707.5"/>
    <vehicle id="veh284" type="normal" route="route3" depart="710.0"/>
    <vehicle id="veh285" type="normal" route="route3" depart="712.5"/>
    <vehicle id="veh286" type="normal" route="route0" depart="715.0"/>
    <vehicle id="veh287" type="normal" route="route4" depart="717.5"/>
    <vehicle id="veh288" type="normal" route="route9" depart="720.0"/>
    <vehicle id="veh289" type="normal" route="route3" depart="722.5"/>
    <vehicle id="veh290" type="normal" route="route4" depart="725.0"/>
    <vehicle id="veh291" type="normal" route="route4" depart="727.5"/>
    <vehicle id="veh292" type="normal" route="route5" depart="730.0"/>
    <vehicle id="veh293" type="normal" route="route8" depart="732.5"/>
    <vehicle id="veh294" type="normal" route="route11" depart="735.0"/>
    <vehicle id="veh295" type="normal" route="route8" depart="737.5"/>
    <vehicle id="veh296" type="normal" route="route0" depart="740.0"/>
    <vehicle id="veh297" type="normal" route="route9" depart="742.5"/>
    <vehicle id="veh298" type="normal" route="route9" depart="745.0"/>
    <vehicle id="veh299" type="normal" route="route9" depart="747.5"/>
    <vehicle id="veh300" type="normal" route="route3" depart="750.0"/>
    <vehicle id="veh301" type="normal" route="route7" depart="752.5"/>
    <vehicle id="veh302" type="emergency" route="route9" depart="755.0"/>
    <vehicle id="veh303" type="normal" route="route3" depart="757.5"/>
    <vehicle id="veh304" type="normal" route="route9" depart="760.0"/>
    <vehicle id="veh305" type="normal" route="route5" depart="762.5"/>
    <vehicle id="veh306" type="normal" route="route2" depart="765.0"/>
    <vehicle id="veh307" type="normal" route="route10" depart="767.5"/>
    <vehicle id="veh308" type="normal" route="route10" depart="770.0"/>
    <vehicle id="veh309" type="normal" route="route4" depart="772.5"/>
    <vehicle id="veh310" type="normal" route="route8" depart="775.0"/>
    <vehicle id="veh311" type="normal" route="route3" depart="777.5"/>
    <vehicle id="veh312" type="normal" route="route2" depart="780.0"/>
    <vehicle id="veh313" type="emergency" route="route6" depart="782.5"/>
    <vehicle id="veh314" type="normal" route="route6" depart="785.0"/>
    <vehicle id="veh315" type="normal" route="route5" depart="787.5"/>
    <vehicle id="veh316" type="normal" route="route3" depart="790.0"/>
    <vehicle id="veh317" type="normal" route="route6" depart="792.5"/>
    <vehicle id="veh318" type="normal" route="route4" depart="795.0"/>
    <vehicle id="veh319" type="normal" route="route0" depart="797.5"/>
    <vehicle id="veh320" type="normal" route="route8" depart="800.0"/>
    <vehicle id="veh321" type="normal" route="route0" depart="802.5"/>
    <vehicle id="veh322" type="normal" route="route0" depart="805.0"/>
    <vehicle id="veh323" type="normal" route="route5" depart="807.5"/>
    <vehicle id="veh324" type="normal" route="route6" depart="810.0"/>
    <vehicle id="veh325" type="normal" route="route0" depart="812.5"/>
    <vehicle id="veh326" type="normal" route="route5" depart="815.0"/>
    <vehicle id="veh327" type="normal" route="route0" depart="817.5"/>
    <vehicle id="veh328" type="normal" route="route0" depart="820.0"/>
    <vehicle id="veh329" type="emergency" route="route10" depart="822.5"/>
    <vehicle id="veh330" type="normal" route="route7" depart="825.0"/>
    <vehicle id="veh331" type="normal" route="route11" depart="827.5"/>
    <vehicle id="veh332" type="normal" route="route11" depart="830.0"/>
    <vehicle id="veh333" type="normal" route="route11" depart="832.5"/>
    <vehicle id="veh334" type="normal" route="route2" depart="835.0"/>
    <vehicle id="veh335" type="normal" route="route6" depart="837.5"/>
    <vehicle id="veh336" type="normal" route="route8" depart="840.0"/>
    <vehicle id="veh337" type="normal" route="route11" depart="842.5"/>
    <vehicle id="veh338" type="normal" route="route5" depart="845.0"/>
    <vehicle id="veh339" type="normal" route="route9" depart="847.5"/>
    <vehicle id="veh340" type="normal" route="route3" depart="850.0"/>
    <vehicle id="veh341" type="normal" route="route5" depart="852.5"/>
    <vehicle id="veh342" type="normal" route="route10" depart="855.0"/>
    <vehicle id="veh343" type="normal" route="route7" depart="857.5"/>
    <vehicle id="veh344" type="normal" route="route2" depart="860.0"/>
    <vehicle id="veh345" type="normal" route="route2" depart="862.5"/>
    <vehicle id="veh346" type="normal" route="route5" depart="865.0"/>
    <vehicle id="veh347" type="normal" route="route4" depart="867.5"/>
    <vehicle id="veh348" type="normal" route="route5" depart="870.0"/>
    <vehicle id="veh349" type="emergency" route="route7" depart="872.5"/>
    <vehicle id="veh350" type="normal" route="route10" depart="875.0"/>
    <vehicle id="veh351" type="normal" route="route7" depart="877.5"/>
    <vehicle id="veh352" type="emergency" route="route6" depart="880.0"/>
    <vehicle id="veh353" type="normal" route="route2" depart="882.5"/>
    <vehicle id="veh354" type="normal" route="route9" depart="885.0"/>
    <vehicle id="veh355" type="normal" route="route3" depart="887.5"/>
    <vehicle id="veh356" type="normal" route="route6" depart="890.0"/>
    <vehicle id="veh357" type="normal" route="route2" depart="892.5"/>
    <vehicle id="veh358" type="normal" route="route6" depart="895.0"/>
    <vehicle id="veh359" type="normal" route="route4" depart="897.5"/>
    <vehicle id="veh360" type="normal" route="route9" depart="900.0"/>
    <vehicle id="veh361" type="normal" route="route2" depart="902.5"/>
    <vehicle id="veh362" type="emergency" route="route4" depart="905.0"/>
    <vehicle id="veh363" type="normal" route="route1" depart="907.5"/>
    <vehicle id="veh364" type="normal" route="route10" depart="910.0"/>
    <vehicle id="veh365" type="normal" route="route3" depart="912.5"/>
    <vehicle id="veh366" type="normal" route="route0" depart="915.0"/>
    <vehicle id="veh367" type="normal" route="route10" depart="917.5"/>
    <vehicle id="veh368" type="normal" route="route5" depart="920.0"/>
    <vehicle id="veh369" type="normal" route="route0" depart="922.5"/>
    <vehicle id="veh370" type="normal" route="route5" depart="925.0"/>
    <vehicle id="veh371" type="normal" route="route9" depart="927.5"/>
    <vehicle id="veh372" type="normal" route="route8" depart="930.0"/>
    <vehicle id="veh373" type="normal" route="route6" depart="932.5"/>
    <vehicle id="veh374" type="normal" route="route5" depart="935.0"/>
    <vehicle id="veh375" type="normal" route="route5" depart="937.5"/>
    <vehicle id="veh376" type="normal" route="route9" depart="940.0"/>
    <vehicle id="veh377" type="normal" route="route10" depart="942.5"/>
    <vehicle id="veh378" type="normal" route="route7" depart="945.0"/>
    <vehicle id="veh379" type="emergency" route="route7" depart="947.5"/>
    <vehicle id="veh380" type="emergency" route="route11" depart="950.0"/>
    <vehicle id="veh381" type="normal" route="route10" depart="952.5"/>
    <vehicle id="veh382" type="normal" route="route6" depart="955.0"/>
    <vehicle id="veh383" type="normal" route="route6" depart="957.5"/>
    <vehicle id="veh384" type="normal" route="route4" depart="960.0"/>
    <vehicle id="veh385" type="emergency" route="route9" depart="962.5"/>
    <vehicle id="veh386" type="normal" route="route11" depart="965.0"/>
    <vehicle id="veh387" type="normal" route="route7" depart="967.5"/>
    <vehicle id="veh388" type="normal" route="route6" depart="970.0"/>
    <vehicle id="veh389" type="emergency" route="route6" depart="972.5"/>
    <vehicle id="veh390" type="normal" route="route2" depart="975.0"/>
    <vehicle id="veh391" type="normal" route="route3" depart="977.5"/>
    <vehicle id="veh392" type="normal" route="route5" depart="980.0"/>
    <vehicle id="veh393" type="normal" route="route2" depart="982.5"/>
    <vehicle id="veh394" type="normal" route="route4" depart="985.0"/>
    <vehicle id="veh395" type="normal" route="route9" depart="987.5"/>
    <vehicle id="veh396" type="normal" route="route5" depart="990.0"/>
    <vehicle id="veh397" type="emergency" route="route8" depart="992.5"/>
    <vehicle id="veh398" type="normal" route="route0" depart="995.0"/>
    <vehicle id="veh399" type="normal" route="route10" depart="997.5"/>
    <vehicle id="veh400" type="normal" route="route11" depart="1000.0"/>
    <vehicle id="veh401" type="normal" route="route9" depart="1002.5"/>
    <vehicle id="veh402" type="normal" route="route7" depart="1005.0"/>