<?xml version="1.0" encoding="UTF-8"?>
<nodes xmlns:xsi="http://www.w3.org/2001/XMLSchema-instance" xsi:noNamespaceSchemaLocation="http://sumo.dlr.de/xsd/nodes_file.xsd">
    <node id="center" type="traffic_light" x="0.0" y="0.0"/>
    <node id="north" type="priority" x="0.0" y="100.0"/>
    <node id="south" type="priority" x="0.0" y="-100.0"/>
    <node id="east" type="priority" x="100.0" y="0.0"/>
    <node id="west" type="priority" x="-100.0" y="0.0"/>
</nodes>