<?xml version="1.0" encoding="UTF-8"?>
<connections xmlns:xsi="http://www.w3.org/2001/XMLSchema-instance" xsi:noNamespaceSchemaLocation="http://sumo.dlr.de/xsd/connections_file.xsd">
    <connection from="N2C" to="C2S" fromLane="0" toLane="0"/>
    <connection from="N2C" to="C2E" fromLane="0" toLane="0"/>
    <connection from="N2C" to="C2W" fromLane="0" toLane="0"/>

    <connection from="S2C" to="C2N" fromLane="0" toLane="0"/>
    <connection from="S2C" to="C2E" fromLane="0" toLane="0"/>
    <connection from="S2C" to="C2W" fromLane="0" toLane="0"/>

    <connection from="E2C" to="C2W" fromLane="0" toLane="0"/>
    <connection from="E2C" to="C2N" fromLane="0" toLane="0"/>
    <connection from="E2C" to="C2S" fromLane="0" toLane="0"/>

    <connection from="W2C" to="C2E" fromLane="0" toLane="0"/>
    <connection from="W2C" to="C2N" fromLane="0" toLane="0"/>
    <connection from="W2C" to="C2S" fromLane="0" toLane="0"/>
</connections>